Version 4
SHEET 1 888 680
WIRE 176 -16 176 -32
WIRE 176 96 176 64
WIRE 272 96 176 96
WIRE 288 96 272 96
WIRE 464 96 432 96
WIRE 176 112 176 96
WIRE 176 128 176 112
WIRE 128 192 -48 192
WIRE 176 224 176 208
FLAG 464 176 0
FLAG 176 -112 0
FLAG -128 192 0
FLAG 272 160 0
FLAG 176 224 0
SYMBOL cap 352 80 R90
WINDOW 0 0 32 VBottom 2
WINDOW 3 32 32 VTop 2
SYMATTR InstName C1
SYMATTR Value 125p
SYMBOL ind 448 80 R90
WINDOW 0 5 56 VBottom 2
WINDOW 3 32 56 VTop 2
SYMATTR InstName L1
SYMATTR Value 9.18µ
SYMBOL res 448 80 R0
SYMATTR InstName R1
SYMATTR Value 28.85
SYMBOL cap 256 96 R0
SYMATTR InstName C2
SYMATTR Value 202p
SYMBOL ind 160 -32 R0
SYMATTR InstName L2
SYMATTR Value 100µ
SYMBOL voltage 176 -16 R180
WINDOW 0 24 96 Left 2
WINDOW 3 24 16 Left 2
SYMATTR InstName V1
SYMATTR Value 12V
SYMBOL voltage -32 192 R90
WINDOW 0 -32 56 VBottom 2
WINDOW 3 32 56 VTop 2
WINDOW 123 0 0 Left 0
WINDOW 39 0 0 Left 0
SYMATTR InstName V2
SYMATTR Value PULSE(0 10 0 1n 1n .1u .2u)
SYMBOL nmos 128 112 R0
SYMATTR InstName M1
SYMATTR Value IRFH5250
TEXT 40 328 Left 2 !.tran 0 100u 0 .1n startup
