Version 4
SHEET 1 1880 680
WIRE 176 -16 176 -32
WIRE 1504 -16 1504 -32
WIRE 832 32 752 32
WIRE 928 32 832 32
WIRE 464 80 432 80
WIRE 1792 80 1760 80
WIRE 176 96 176 64
WIRE 272 96 176 96
WIRE 288 96 272 96
WIRE 432 96 432 80
WIRE 432 96 352 96
WIRE 464 96 464 80
WIRE 752 96 624 96
WIRE 864 96 832 96
WIRE 928 96 928 32
WIRE 928 96 896 96
WIRE 960 96 928 96
WIRE 1504 96 1504 64
WIRE 1600 96 1504 96
WIRE 1616 96 1600 96
WIRE 1760 96 1760 80
WIRE 1760 96 1680 96
WIRE 1792 96 1792 80
WIRE 176 112 176 96
WIRE 752 112 752 96
WIRE 832 112 832 96
WIRE 1504 112 1504 96
WIRE 176 128 176 112
WIRE 1504 128 1504 112
WIRE 784 176 752 176
WIRE 832 176 784 176
WIRE 896 176 896 160
WIRE 896 176 832 176
WIRE 960 176 896 176
WIRE 128 192 -48 192
WIRE 1456 192 1280 192
WIRE 560 208 560 176
WIRE 864 208 864 96
WIRE 864 208 560 208
WIRE 176 224 176 208
WIRE 1504 224 1504 208
WIRE 464 256 464 176
FLAG 176 -112 0
FLAG -128 192 0
FLAG 272 160 0
FLAG 176 224 0
FLAG 464 256 0
FLAG 1504 -112 0
FLAG 1200 192 0
FLAG 1600 160 0
FLAG 1504 224 0
FLAG 1792 256 0
FLAG 784 176 0
SYMBOL cap 352 80 R90
WINDOW 0 0 32 VBottom 2
WINDOW 3 32 32 VTop 2
SYMATTR InstName C1
SYMATTR Value 1030p
SYMBOL cap 256 96 R0
SYMATTR InstName C2
SYMATTR Value 260p
SYMBOL ind2 160 -32 R0
SYMATTR InstName L2
SYMATTR Value 100µ
SYMATTR Type ind
SYMBOL voltage 176 -16 R180
WINDOW 0 24 96 Left 2
WINDOW 3 24 16 Left 2
SYMATTR InstName V1
SYMATTR Value 12V
SYMBOL voltage -32 192 R90
WINDOW 0 -32 56 VBottom 2
WINDOW 3 32 56 VTop 2
WINDOW 123 0 0 Left 0
WINDOW 39 60 56 VTop 2
SYMATTR InstName V2
SYMATTR Value PULSE(0 10 0 1n 1n .1u .2u)
SYMBOL ind2 448 80 R0
SYMATTR InstName Lp
SYMATTR Value 1.59µ
SYMATTR Type ind
SYMBOL cap 1680 80 R90
WINDOW 0 0 32 VBottom 2
WINDOW 3 32 32 VTop 2
SYMATTR InstName C4
SYMATTR Value 125p
SYMBOL cap 1584 96 R0
SYMATTR InstName C5
SYMATTR Value 100p
SYMBOL ind 1488 -32 R0
SYMATTR InstName L3
SYMATTR Value 100µ
SYMBOL voltage 1504 -16 R180
WINDOW 0 24 96 Left 2
WINDOW 3 24 16 Left 2
SYMATTR InstName V3
SYMATTR Value 12V
SYMBOL voltage 1296 192 R90
WINDOW 0 -32 56 VBottom 2
WINDOW 3 32 56 VTop 2
WINDOW 123 0 0 Left 0
WINDOW 39 60 56 VTop 2
SYMATTR InstName V4
SYMATTR Value PULSE(0 10 0 1n 1n .1u .2u)
SYMBOL ind 1776 80 R0
SYMATTR InstName Lp1
SYMATTR Value 9.18µ
SYMBOL res 1776 160 R0
SYMATTR InstName R3
SYMATTR Value 28.8
SYMBOL nmos 128 112 R0
SYMATTR InstName M3
SYMATTR Value IRF510
SYMBOL ind2 576 192 R180
WINDOW 0 36 80 Left 2
WINDOW 3 36 40 Left 2
SYMATTR InstName L1
SYMATTR Value 1.59µ
SYMATTR Type ind
SYMBOL cap 624 80 R90
WINDOW 0 0 32 VBottom 2
WINDOW 3 32 32 VTop 2
SYMATTR InstName C3
SYMATTR Value 637p
SYMBOL schottky 768 96 R180
WINDOW 0 24 64 Left 2
WINDOW 3 24 0 Left 2
SYMATTR InstName D1
SYMATTR Value MBRS340
SYMATTR Description Diode
SYMATTR Type diode
SYMBOL schottky 848 176 R180
WINDOW 0 24 64 Left 2
WINDOW 3 24 0 Left 2
SYMATTR InstName D4
SYMATTR Value MBRS340
SYMATTR Description Diode
SYMATTR Type diode
SYMBOL cap 880 96 R0
SYMATTR InstName C6
SYMATTR Value 1µ
SYMBOL res 944 80 R0
SYMATTR InstName R1
SYMATTR Value 6
SYMBOL schottky 848 96 R180
WINDOW 0 24 64 Left 2
WINDOW 3 24 0 Left 2
SYMATTR InstName D2
SYMATTR Value MBRS340
SYMATTR Description Diode
SYMATTR Type diode
SYMBOL schottky 768 176 R180
WINDOW 0 24 64 Left 2
WINDOW 3 24 0 Left 2
SYMATTR InstName D3
SYMATTR Value MBRS340
SYMATTR Description Diode
SYMATTR Type diode
SYMBOL nmos 1456 112 R0
SYMATTR InstName M1
SYMATTR Value IRF510
TEXT 40 328 Left 2 !.tran 0 250u 50u 1n startup
TEXT 1368 328 Left 2 !;tran 0 50u 0 .1n startup
TEXT 456 48 Left 2 !K Lp L1 0.2
TEXT 432 -64 Left 2 ;Q=3
TEXT 1568 -184 Left 2 ;Q=10
