Version 4.1
SHEET 1 1800 680
WIRE 1664 -256 992 -256
WIRE 992 -192 992 -256
WIRE 1360 -64 1184 -64
WIRE 1472 -64 1360 -64
WIRE 1664 -64 1664 -256
WIRE 1664 -64 1536 -64
WIRE 1360 48 1360 -64
WIRE 1664 48 1664 -64
WIRE 992 208 992 -112
WIRE 1360 208 1360 112
WIRE 1360 208 992 208
WIRE 1472 208 1360 208
WIRE 1664 208 1664 112
WIRE 1664 208 1536 208
WIRE 1744 208 1664 208
WIRE 1744 352 1744 208
WIRE 1744 352 1680 352
WIRE 1184 432 1184 -64
WIRE 1680 432 1680 416
WIRE 1680 432 1184 432
WIRE 1744 432 1680 432
FLAG 1744 432 0
FLAG 992 208 0
SYMBOL diode 1344 48 R0
SYMATTR InstName D5
SYMBOL diode 1472 224 R270
WINDOW 0 32 32 VTop 2
WINDOW 3 0 32 VBottom 2
SYMATTR InstName D6
SYMBOL diode 1648 48 R0
SYMATTR InstName D7
SYMBOL diode 1472 -48 R270
WINDOW 0 32 32 VTop 2
WINDOW 3 0 32 VBottom 2
SYMATTR InstName D8
SYMBOL res 1728 336 R0
SYMATTR InstName R2
SYMATTR Value 10
SYMBOL cap 1664 352 R0
SYMATTR InstName C2
SYMATTR Value 47”
SYMBOL voltage 992 -208 R0
WINDOW 123 0 0 Left 0
WINDOW 39 0 0 Left 0
SYMATTR InstName V2
SYMATTR Value SINE(0 6 1Meg)
TEXT 1632 520 Left 2 !.tran 10m
